/*--------------------------------*- C++ -*----------------------------------*\
| =========                 |                                                 |
| \\      /  F ield         | OpenFOAM: The Open Source CFD Toolbox           |
|  \\    /   O peration     | Version:  v2006                                 |
|   \\  /    A nd           | Website:  www.openfoam.com                      |
|    \\/     M anipulation  |                                                 |
\*---------------------------------------------------------------------------*/
FoamFile 
{ 
    version     2.0; 
    format      ascii; 
    class       dictionary; 
    object      airfoilProperties; 
} 
// * * * * * * * * * * * * * * * * * * * * * * * * * * * * * * * * * * * * * // 

airfoilData
(
//   alpha   C_l    C_d
(	-180.00000	0.00000	0.00000		)
(	-175.00000	0.17365	0.00760		)
(	-170.00000	0.34202	0.03015		)
(	-165.00000	0.50000	0.06699		)
(	-160.00000	0.64279	0.11698		)
(	-155.00000	0.76604	0.17861		)
(	-150.00000	0.86603	0.25000		)
(	-145.00000	0.93969	0.32899		)
(	-140.00000	0.98481	0.41318		)
(	-135.00000	1.00000	0.50000		)
(	-130.00000	0.98481	0.58682		)
(	-125.00000	0.93969	0.67101		)
(	-120.00000	0.86603	0.75000		)
(	-115.00000	0.76604	0.82139		)
(	-110.00000	0.64279	0.88302		)
(	-105.00000	0.50000	0.93301		)
(	-100.00000	0.34202	0.96985		)
(	-95.00000	0.17365	0.99240		)
(	-90.00000	0.00000	1.00000		)
(	-85.00000	-0.17365	0.99240		)
(	-80.00000	-0.34202	0.96985		)
(	-75.00000	-0.50000	0.93301		)
(	-70.00000	-0.64279	0.88302		)
(	-65.00000	-0.76604	0.82139		)
(	-60.00000	-0.86603	0.75000		)
(	-55.00000	-0.93969	0.67101		)
(	-50.00000	-0.98481	0.58682		)
(	-45.00000	-1.00000	0.50000		)
(	-40.00000	-0.98481	0.41318		)
(	-35.00000	-0.93969	0.32899		)
(	-30.00000	-0.86603	0.25000		)
(	-25.00000	-0.76604	0.17861		)
(	-20.00000	-0.64279	0.11698		)
(	-15.00000	-0.50000	0.06699		)
(	-10.00000	-0.37350	0.11820		)
(	-9.00000	-0.35390	0.10710		)
(	-8.00000	-0.39430	0.09779		)
(	-7.00000	-0.48650	0.09064		)
(	-6.00000	-0.41000	0.06008		)
(	-5.00000	-0.22170	0.03674		)
(	-4.00000	-0.06570	0.02697		)
(	-3.00000	0.04460	0.02863		)
(	-2.00000	0.13740	0.03056		)
(	-1.00000	0.30320	0.02868		)
(	0.00000	0.47190	0.02545		)
(	1.00000	0.58530	0.02570		)
(	2.00000	0.75060	0.02477		)
(	3.00000	0.83040	0.02726		)
(	4.00000	0.95920	0.02760		)
(	5.00000	1.07050	0.02800		)
(	6.00000	1.18390	0.02749		)
(	7.00000	1.31300	0.02510		)
(	8.00000	1.38620	0.02323		)
(	9.00000	1.39000	0.02636		)
(	10.00000	1.36210	0.03594		)
(	11.00000	1.36830	0.04562		)
(	12.00000	1.40780	0.05714		)
(	14.00000	1.34730	0.09249		)
(	15.00000	1.26820	0.11717		)
(	16.00000	1.13210	0.17391		)
(	17.00000	1.09240	0.21808		)
(	19.00000	1.07940	0.28479		)
(	20.00000	1.07810	0.30819		)
(	25.00000	0.76604	0.17861		)
(	30.00000	0.86603	0.25000		)
(	35.00000	0.93969	0.32899		)
(	40.00000	0.98481	0.41318		)
(	45.00000	1.00000	0.50000		)
(	50.00000	0.98481	0.58682		)
(	55.00000	0.93969	0.67101		)
(	60.00000	0.86603	0.75000		)
(	65.00000	0.76604	0.82139		)
(	70.00000	0.64279	0.88302		)
(	75.00000	0.50000	0.93301		)
(	80.00000	0.34202	0.96985		)
(	85.00000	0.17365	0.99240		)
(	90.00000	0.00000	1.00000		)
(	95.00000	-0.17365	0.99240		)
(	100.00000	-0.34202	0.96985		)
(	105.00000	-0.50000	0.93301		)
(	110.00000	-0.64279	0.88302		)
(	115.00000	-0.76604	0.82139		)
(	120.00000	-0.86603	0.75000		)
(	125.00000	-0.93969	0.67101		)
(	130.00000	-0.98481	0.58682		)
(	135.00000	-1.00000	0.50000		)
(	140.00000	-0.98481	0.41318		)
(	145.00000	-0.93969	0.32899		)
(	150.00000	-0.86603	0.25000		)
(	155.00000	-0.76604	0.17861		)
(	160.00000	-0.64279	0.11698		)
(	165.00000	-0.50000	0.06699		)
(	170.00000	-0.34202	0.03015		)
(	175.00000	-0.17365	0.00760		)
(	180.00000	0.00000	0.00000		)

);

// ************************************************************************* //
