/*--------------------------------*- C++ -*----------------------------------*\
| =========                 |                                                 |
| \\      /  F ield         | OpenFOAM: The Open Source CFD Toolbox           |
|  \\    /   O peration     | Version:  v2006                                 |
|   \\  /    A nd           | Website:  www.openfoam.com                      |
|    \\/     M anipulation  |                                                 |
\*---------------------------------------------------------------------------*/
FoamFile 
{ 
    version     2.0; 
    format      ascii; 
    class       dictionary; 
    object      airfoilProperties; 
} 
// * * * * * * * * * * * * * * * * * * * * * * * * * * * * * * * * * * * * * // 

airfoilData
(
//   alpha   C_l    C_d
(	-180.00000	0.00000	0.00000		)
(	-175.00000	0.17365	0.00760		)
(	-170.00000	0.34202	0.03015		)
(	-165.00000	0.50000	0.06699		)
(	-160.00000	0.64279	0.11698		)
(	-155.00000	0.76604	0.17861		)
(	-150.00000	0.86603	0.25000		)
(	-145.00000	0.93969	0.32899		)
(	-140.00000	0.98481	0.41318		)
(	-135.00000	1.00000	0.50000		)
(	-130.00000	0.98481	0.58682		)
(	-125.00000	0.93969	0.67101		)
(	-120.00000	0.86603	0.75000		)
(	-115.00000	0.76604	0.82139		)
(	-110.00000	0.64279	0.88302		)
(	-105.00000	0.50000	0.93301		)
(	-100.00000	0.34202	0.96985		)
(	-95.00000	0.17365	0.99240		)
(	-90.00000	0.00000	1.00000		)
(	-85.00000	-0.17365	0.99240		)
(	-80.00000	-0.34202	0.96985		)
(	-75.00000	-0.50000	0.93301		)
(	-70.00000	-0.64279	0.88302		)
(	-65.00000	-0.76604	0.82139		)
(	-60.00000	-0.86603	0.75000		)
(	-55.00000	-0.93969	0.67101		)
(	-50.00000	-0.98481	0.58682		)
(	-45.00000	-1.00000	0.50000		)
(	-40.00000	-0.98481	0.41318		)
(	-35.00000	-0.93969	0.32899		)
(	-30.00000	-0.86603	0.25000		)
(	-25.00000	-0.76604	0.17861		)
(	-20.00000	-0.64279	0.11698		)
(	-15.00000	-0.50000	0.06699		)
(	-10.00000	-0.34202	0.03015		)
(	-9.00000	-0.34700	0.11005		)
(	-6.00000	-0.48950	0.08385		)
(	-5.00000	-0.30630	0.04118		)
(	-4.00000	-0.13550	0.03112		)
(	-2.00000	0.03230	0.03623		)
(	-1.00000	0.17240	0.03520		)
(	0.00000	0.29480	0.03546		)
(	1.00000	0.44110	0.03547		)
(	2.00000	0.54590	0.03647		)
(	4.00000	0.76680	0.04116		)
(	5.00000	0.81980	0.04622		)
(	7.00000	1.19830	0.03489		)
(	8.00000	1.35110	0.02831		)
(	9.00000	1.38810	0.02797		)
(	10.00000	1.35120	0.03794		)
(	11.00000	1.37330	0.04804		)
(	12.00000	1.42180	0.06050		)
(	13.00000	1.39550	0.07520		)
(	14.00000	1.33210	0.09578		)
(	15.00000	1.23390	0.12454		)
(	16.00000	1.13430	0.17023		)
(	17.00000	1.08250	0.22517		)
(	18.00000	1.08590	0.26624		)
(	19.00000	1.07150	0.28459		)
(	20.00000	1.09900	0.31955		)
(	25.00000	0.76604	0.17861		)
(	30.00000	0.86603	0.25000		)
(	35.00000	0.93969	0.32899		)
(	40.00000	0.98481	0.41318		)
(	45.00000	1.00000	0.50000		)
(	50.00000	0.98481	0.58682		)
(	55.00000	0.93969	0.67101		)
(	60.00000	0.86603	0.75000		)
(	65.00000	0.76604	0.82139		)
(	70.00000	0.64279	0.88302		)
(	75.00000	0.50000	0.93301		)
(	80.00000	0.34202	0.96985		)
(	85.00000	0.17365	0.99240		)
(	90.00000	0.00000	1.00000		)
(	95.00000	-0.17365	0.99240		)
(	100.00000	-0.34202	0.96985		)
(	105.00000	-0.50000	0.93301		)
(	110.00000	-0.64279	0.88302		)
(	115.00000	-0.76604	0.82139		)
(	120.00000	-0.86603	0.75000		)
(	125.00000	-0.93969	0.67101		)
(	130.00000	-0.98481	0.58682		)
(	135.00000	-1.00000	0.50000		)
(	140.00000	-0.98481	0.41318		)
(	145.00000	-0.93969	0.32899		)
(	150.00000	-0.86603	0.25000		)
(	155.00000	-0.76604	0.17861		)
(	160.00000	-0.64279	0.11698		)
(	165.00000	-0.50000	0.06699		)
(	170.00000	-0.34202	0.03015		)
(	175.00000	-0.17365	0.00760		)
(	180.00000	0.00000	0.00000		)


);

// ************************************************************************* //
